56672430
  -OEChem-02162314422D

 90 96  0     1  0  0  0  0  0999 V2000
    8.8472    3.8894    0.0000 O   0  0  0  0  0  0  0  0  0  0  0  0
    5.2425   -2.2874    0.0000 O   0  0  0  0  0  0  0  0  0  0  0  0
    3.5134    1.6629    0.0000 O   0  0  0  0  0  0  0  0  0  0  0  0
    6.1049    3.2655    0.0000 O   0  0  0  0  0  0  0  0  0  0  0  0
    7.4955   -1.2434    0.0000 O   0  0  0  0  0  0  0  0  0  0  0  0
    2.0138   -3.1050    0.0000 O   0  0  0  0  0  0  0  0  0  0  0  0
    4.1786   -4.1276    0.0000 O   0  0  0  0  0  0  0  0  0  0  0  0
    8.7756   -0.3612    0.0000 O   0  0  0  0  0  0  0  0  0  0  0  0
    2.6892   -4.7819    0.0000 O   0  0  0  0  0  0  0  0  0  0  0  0
    6.9373   -1.9302    0.0000 O   0  0  0  0  0  0  0  0  0  0  0  0
    4.3795    3.1629    0.0000 O   0  0  0  0  0  0  0  0  0  0  0  0
    6.9418    4.7819    0.0000 O   0  0  0  0  0  0  0  0  0  0  0  0
    4.3795    0.1629    0.0000 C   0  0  1  0  0  0  0  0  0  0  0  0
    5.2455   -0.3371    0.0000 C   0  0  2  0  0  0  0  0  0  0  0  0
    3.6425   -0.5042    0.0000 C   0  0  2  0  0  0  0  0  0  0  0  0
    6.1115    0.1629    0.0000 C   0  0  1  0  0  0  0  0  0  0  0  0
    6.1115    1.1629    0.0000 C   0  0  1  0  0  0  0  0  0  0  0  0
    4.0476   -1.4120    0.0000 C   0  0  1  0  0  0  0  0  0  0  0  0
    7.0055    1.6976    0.0000 C   0  0  2  0  0  0  0  0  0  0  0  0
    5.0363   -1.3089    0.0000 C   0  0  2  0  0  0  0  0  0  0  0  0
    4.3795    1.1629    0.0000 C   0  0  2  0  0  0  0  0  0  0  0  0
    5.2455    1.6629    0.0000 C   0  0  0  0  0  0  0  0  0  0  0  0
    3.4527   -2.2595    0.0000 C   0  0  1  0  0  0  0  0  0  0  0  0
    7.9115    1.1837    0.0000 C   0  0  2  0  0  0  0  0  0  0  0  0
    7.0055   -0.3717    0.0000 C   0  0  2  0  0  0  0  0  0  0  0  0
    2.6144   -0.3810    0.0000 C   0  0  1  0  0  0  0  0  0  0  0  0
    6.9804    2.7823    0.0000 C   0  0  2  0  0  0  0  0  0  0  0  0
    3.5134    0.6629    0.0000 C   0  0  0  0  0  0  0  0  0  0  0  0
    7.9115    3.3392    0.0000 C   0  0  2  0  0  0  0  0  0  0  0  0
    8.8553    2.8040    0.0000 C   0  0  2  0  0  0  0  0  0  0  0  0
    8.8553    1.7190    0.0000 C   0  0  0  0  0  0  0  0  0  0  0  0
    7.9115    0.1421    0.0000 C   0  0  0  0  0  0  0  0  0  0  0  0
    3.6727   -3.2650    0.0000 C   0  0  1  0  0  0  0  0  0  0  0  0
    2.4220   -2.1601    0.0000 C   0  0  0  0  0  0  0  0  0  0  0  0
    6.1356    2.1909    0.0000 C   0  0  0  0  0  0  0  0  0  0  0  0
    2.0000   -1.2145    0.0000 C   0  0  0  0  0  0  0  0  0  0  0  0
    4.4480   -2.3555    0.0000 C   0  0  0  0  0  0  0  0  0  0  0  0
    2.2174    0.5369    0.0000 C   0  0  0  0  0  0  0  0  0  0  0  0
    2.7852   -3.7865    0.0000 C   0  0  0  0  0  0  0  0  0  0  0  0
    4.6494   -3.0504    0.0000 C   0  0  0  0  0  0  0  0  0  0  0  0
    6.1930   -2.5981    0.0000 C   0  0  0  0  0  0  0  0  0  0  0  0
    3.5134    2.6629    0.0000 C   0  0  0  0  0  0  0  0  0  0  0  0
    6.0856    4.2653    0.0000 C   0  0  0  0  0  0  0  0  0  0  0  0
    6.3992   -3.5766    0.0000 C   0  0  0  0  0  0  0  0  0  0  0  0
    2.6474    3.1629    0.0000 C   0  0  0  0  0  0  0  0  0  0  0  0
    5.2101    4.7485    0.0000 C   0  0  0  0  0  0  0  0  0  0  0  0
    5.9325   -0.8376    0.0000 H   0  0  0  0  0  0  0  0  0  0  0  0
    3.3846    0.3058    0.0000 H   0  0  0  0  0  0  0  0  0  0  0  0
    6.1050   -0.6871    0.0000 H   0  0  0  0  0  0  0  0  0  0  0  0
    6.8509    0.7436    0.0000 H   0  0  0  0  0  0  0  0  0  0  0  0
    4.4782   -2.1448    0.0000 H   0  0  0  0  0  0  0  0  0  0  0  0
    5.6563   -1.3102    0.0000 H   0  0  0  0  0  0  0  0  0  0  0  0
    4.3795    1.7829    0.0000 H   0  0  0  0  0  0  0  0  0  0  0  0
    5.6440    2.1379    0.0000 H   0  0  0  0  0  0  0  0  0  0  0  0
    4.8470    2.1379    0.0000 H   0  0  0  0  0  0  0  0  0  0  0  0
    8.6460    0.7559    0.0000 H   0  0  0  0  0  0  0  0  0  0  0  0
    6.5612   -0.8042    0.0000 H   0  0  0  0  0  0  0  0  0  0  0  0
    2.9851    0.1160    0.0000 H   0  0  0  0  0  0  0  0  0  0  0  0
    6.9696    3.4022    0.0000 H   0  0  0  0  0  0  0  0  0  0  0  0
    3.8234    1.1998    0.0000 H   0  0  0  0  0  0  0  0  0  0  0  0
    2.9765    0.9729    0.0000 H   0  0  0  0  0  0  0  0  0  0  0  0
    3.2034    0.1260    0.0000 H   0  0  0  0  0  0  0  0  0  0  0  0
    7.5953    3.8725    0.0000 H   0  0  0  0  0  0  0  0  0  0  0  0
    9.4753    2.8063    0.0000 H   0  0  0  0  0  0  0  0  0  0  0  0
    9.0644    1.1353    0.0000 H   0  0  0  0  0  0  0  0  0  0  0  0
    9.4662    1.8251    0.0000 H   0  0  0  0  0  0  0  0  0  0  0  0
    6.4415    2.7302    0.0000 H   0  0  0  0  0  0  0  0  0  0  0  0
    5.5963    2.4967    0.0000 H   0  0  0  0  0  0  0  0  0  0  0  0
    5.8298    1.6516    0.0000 H   0  0  0  0  0  0  0  0  0  0  0  0
    1.3836   -1.1478    0.0000 H   0  0  0  0  0  0  0  0  0  0  0  0
    4.3885   -2.9726    0.0000 H   0  0  0  0  0  0  0  0  0  0  0  0
    5.0652   -2.4150    0.0000 H   0  0  0  0  0  0  0  0  0  0  0  0
    4.5076   -1.7383    0.0000 H   0  0  0  0  0  0  0  0  0  0  0  0
    2.7865    0.7830    0.0000 H   0  0  0  0  0  0  0  0  0  0  0  0
    1.9713    1.1060    0.0000 H   0  0  0  0  0  0  0  0  0  0  0  0
    1.6484    0.2908    0.0000 H   0  0  0  0  0  0  0  0  0  0  0  0
    8.1154   -1.2507    0.0000 H   0  0  0  0  0  0  0  0  0  0  0  0
    4.7824   -3.6560    0.0000 H   0  0  0  0  0  0  0  0  0  0  0  0
    5.2549   -2.9174    0.0000 H   0  0  0  0  0  0  0  0  0  0  0  0
    4.5163   -2.4449    0.0000 H   0  0  0  0  0  0  0  0  0  0  0  0
    3.8723   -4.6666    0.0000 H   0  0  0  0  0  0  0  0  0  0  0  0
    5.7926   -3.7044    0.0000 H   0  0  0  0  0  0  0  0  0  0  0  0
    6.5271   -4.1832    0.0000 H   0  0  0  0  0  0  0  0  0  0  0  0
    7.0059   -3.4487    0.0000 H   0  0  0  0  0  0  0  0  0  0  0  0
    2.9574    3.6998    0.0000 H   0  0  0  0  0  0  0  0  0  0  0  0
    2.1105    3.4729    0.0000 H   0  0  0  0  0  0  0  0  0  0  0  0
    2.3374    2.6260    0.0000 H   0  0  0  0  0  0  0  0  0  0  0  0
    5.5097    5.2913    0.0000 H   0  0  0  0  0  0  0  0  0  0  0  0
    4.6673    5.0481    0.0000 H   0  0  0  0  0  0  0  0  0  0  0  0
    4.9105    4.2057    0.0000 H   0  0  0  0  0  0  0  0  0  0  0  0
 29  1  1  1  0  0  0
 30  1  1  1  0  0  0
 20  2  1  1  0  0  0
  2 41  1  0  0  0  0
 21  3  1  1  0  0  0
  3 42  1  0  0  0  0
 27  4  1  1  0  0  0
  4 43  1  0  0  0  0
 25  5  1  6  0  0  0
  5 77  1  0  0  0  0
  6 34  1  0  0  0  0
  6 39  1  0  0  0  0
 33  7  1  6  0  0  0
  7 81  1  0  0  0  0
  8 32  2  0  0  0  0
  9 39  2  0  0  0  0
 10 41  2  0  0  0  0
 11 42  2  0  0  0  0
 12 43  2  0  0  0  0
 13 14  1  0  0  0  0
 13 15  1  0  0  0  0
 13 21  1  0  0  0  0
 13 28  1  6  0  0  0
 14 16  1  0  0  0  0
 14 20  1  0  0  0  0
 14 47  1  1  0  0  0
 15 18  1  0  0  0  0
 15 26  1  0  0  0  0
 15 48  1  1  0  0  0
 16 17  1  0  0  0  0
 16 25  1  0  0  0  0
 16 49  1  6  0  0  0
 17 19  1  0  0  0  0
 17 22  1  0  0  0  0
 17 50  1  1  0  0  0
 18 20  1  0  0  0  0
 18 23  1  0  0  0  0
 18 51  1  6  0  0  0
 19 24  1  0  0  0  0
 19 27  1  0  0  0  0
 19 35  1  6  0  0  0
 20 52  1  0  0  0  0
 21 22  1  0  0  0  0
 21 53  1  0  0  0  0
 22 54  1  0  0  0  0
 22 55  1  0  0  0  0
 23 33  1  0  0  0  0
 23 34  1  0  0  0  0
 23 37  1  6  0  0  0
 24 31  1  0  0  0  0
 24 32  1  0  0  0  0
 24 56  1  1  0  0  0
 25 32  1  0  0  0  0
 25 57  1  0  0  0  0
 26 36  1  0  0  0  0
 26 38  1  1  0  0  0
 26 58  1  0  0  0  0
 27 29  1  0  0  0  0
 27 59  1  0  0  0  0
 28 60  1  0  0  0  0
 28 61  1  0  0  0  0
 28 62  1  0  0  0  0
 29 30  1  0  0  0  0
 29 63  1  0  0  0  0
 30 31  1  0  0  0  0
 30 64  1  0  0  0  0
 31 65  1  0  0  0  0
 31 66  1  0  0  0  0
 33 39  1  0  0  0  0
 33 40  1  0  0  0  0
 34 36  2  0  0  0  0
 35 67  1  0  0  0  0
 35 68  1  0  0  0  0
 35 69  1  0  0  0  0
 36 70  1  0  0  0  0
 37 71  1  0  0  0  0
 37 72  1  0  0  0  0
 37 73  1  0  0  0  0
 38 74  1  0  0  0  0
 38 75  1  0  0  0  0
 38 76  1  0  0  0  0
 40 78  1  0  0  0  0
 40 79  1  0  0  0  0
 40 80  1  0  0  0  0
 41 44  1  0  0  0  0
 42 45  1  0  0  0  0
 43 46  1  0  0  0  0
 44 82  1  0  0  0  0
 44 83  1  0  0  0  0
 44 84  1  0  0  0  0
 45 85  1  0  0  0  0
 45 86  1  0  0  0  0
 45 87  1  0  0  0  0
 46 88  1  0  0  0  0
 46 89  1  0  0  0  0
 46 90  1  0  0  0  0
M  END
> <PUBCHEM_COMPOUND_CID>
56672430

> <PUBCHEM_COMPOUND_CANONICALIZED>
1

> <PUBCHEM_CACTVS_COMPLEXITY>
1470

> <PUBCHEM_CACTVS_HBOND_ACCEPTOR>
12

> <PUBCHEM_CACTVS_HBOND_DONOR>
2

> <PUBCHEM_CACTVS_ROTATABLE_BOND>
6

> <PUBCHEM_CACTVS_SUBSKEYS>
AAADcfB8PAAAAAAAAAAAAAAAEgAAAaIAAAAwYMEABIAAAGDAAAAAGgAACAAAD1SggAICCAAABgCIAKDSCAIACAAgIAAACAFAAAgBEBIAAAACQAAFwAALAAPK7PzPgAAAAAAAAADAAAYQADCAAYAADAAAAA==

> <PUBCHEM_IUPAC_OPENEYE_NAME>
[(1S,2R,3R,5S,7S,9S,10R,11R,12S,14S,15R,16S,17S,22S,23S,24R,25R)-10,25-diacetoxy-3,22-dihydroxy-11,15,17,22,23-pentamethyl-4,21-dioxo-8,20-dioxaheptacyclo[13.10.0.02,12.05,11.07,9.016,24.019,23]pentacos-18-en-14-yl] acetate

> <PUBCHEM_IUPAC_CAS_NAME>
acetic acid [(1S,2R,3R,5S,7S,9S,10R,11R,12S,14S,15R,16S,17S,22S,23S,24R,25R)-10,25-diacetyloxy-3,22-dihydroxy-11,15,17,22,23-pentamethyl-4,21-dioxo-8,20-dioxaheptacyclo[13.10.0.02,12.05,11.07,9.016,24.019,23]pentacos-18-en-14-yl] ester

> <PUBCHEM_IUPAC_NAME_MARKUP>
[(1<I>S</I>,2<I>R</I>,3<I>R</I>,5<I>S</I>,7<I>S</I>,9<I>S</I>,10<I>R</I>,11<I>R</I>,12<I>S</I>,14<I>S</I>,15<I>R</I>,16<I>S</I>,17<I>S</I>,22<I>S</I>,23<I>S</I>,24<I>R</I>,25<I>R</I>)-10,25-diacetyloxy-3,22-dihydroxy-11,15,17,22,23-pentamethyl-4,21-dioxo-8,20-dioxaheptacyclo[13.10.0.0<SUP>2,12</SUP>.0<SUP>5,11</SUP>.0<SUP>7,9</SUP>.0<SUP>16,24</SUP>.0<SUP>19,23</SUP>]pentacos-18-en-14-yl] acetate

> <PUBCHEM_IUPAC_NAME>
[(1S,2R,3R,5S,7S,9S,10R,11R,12S,14S,15R,16S,17S,22S,23S,24R,25R)-10,25-diacetyloxy-3,22-dihydroxy-11,15,17,22,23-pentamethyl-4,21-dioxo-8,20-dioxaheptacyclo[13.10.0.02,12.05,11.07,9.016,24.019,23]pentacos-18-en-14-yl] acetate

> <PUBCHEM_IUPAC_SYSTEMATIC_NAME>
[(1S,2R,3R,5S,7S,9S,10R,11R,12S,14S,15R,16S,17S,22S,23S,24R,25R)-10,25-diacetyloxy-11,15,17,22,23-pentamethyl-3,22-bis(oxidanyl)-4,21-bis(oxidanylidene)-8,20-dioxaheptacyclo[13.10.0.02,12.05,11.07,9.016,24.019,23]pentacos-18-en-14-yl] ethanoate

> <PUBCHEM_IUPAC_TRADITIONAL_NAME>
acetic acid [(1S,2R,3R,5S,7S,9S,10R,11R,12S,14S,15R,16S,17S,22S,23S,24R,25R)-10,25-diacetoxy-3,22-dihydroxy-4,21-diketo-11,15,17,22,23-pentamethyl-8,20-dioxaheptacyclo[13.10.0.02,12.05,11.07,9.016,24.019,23]pentacos-18-en-14-yl] ester

> <PUBCHEM_IUPAC_INCHI>
InChI=1S/C34H44O12/c1-12-9-20-33(7,34(8,41)30(40)46-20)24-22(12)32(6)19(42-13(2)35)11-16-21(23(32)28(24)43-14(3)36)26(39)25(38)17-10-18-27(45-18)29(31(16,17)5)44-15(4)37/h9,12,16-19,21-24,26-29,39,41H,10-11H2,1-8H3/t12-,16+,17-,18+,19+,21-,22+,23-,24+,26-,27+,28-,29+,31-,32-,33+,34-/m1/s1

> <PUBCHEM_IUPAC_INCHIKEY>
QPGVBFHVYONDKH-DSDDZLSXSA-N

> <PUBCHEM_XLOGP3_AA>
2.1

> <PUBCHEM_EXACT_MASS>
644.28327683

> <PUBCHEM_MOLECULAR_FORMULA>
C34H44O12

> <PUBCHEM_MOLECULAR_WEIGHT>
644.7

> <PUBCHEM_OPENEYE_CAN_SMILES>
CC1C=C2C(C3C1C4(C(CC5C(C4C3OC(=O)C)C(C(=O)C6C5(C(C7C(C6)O7)OC(=O)C)C)O)OC(=O)C)C)(C(C(=O)O2)(C)O)C

> <PUBCHEM_OPENEYE_ISO_SMILES>
C[C@@H]1C=C2[C@@]([C@H]3[C@H]1[C@]4([C@H](C[C@H]5[C@H]([C@@H]4[C@H]3OC(=O)C)[C@H](C(=O)[C@@H]6[C@@]5([C@H]([C@@H]7[C@H](C6)O7)OC(=O)C)C)O)OC(=O)C)C)([C@](C(=O)O2)(C)O)C

> <PUBCHEM_CACTVS_TPSA>
175

> <PUBCHEM_MONOISOTOPIC_WEIGHT>
644.28327683

> <PUBCHEM_TOTAL_CHARGE>
0

> <PUBCHEM_HEAVY_ATOM_COUNT>
46

> <PUBCHEM_ATOM_DEF_STEREO_COUNT>
17

> <PUBCHEM_ATOM_UDEF_STEREO_COUNT>
0

> <PUBCHEM_BOND_DEF_STEREO_COUNT>
0

> <PUBCHEM_BOND_UDEF_STEREO_COUNT>
0

> <PUBCHEM_ISOTOPIC_ATOM_COUNT>
0

> <PUBCHEM_COMPONENT_COUNT>
1

> <PUBCHEM_CACTVS_TAUTO_COUNT>
-1

> <PUBCHEM_COORDINATE_TYPE>
1
5
255

> <PUBCHEM_BONDANNOTATIONS>
29  1  5
30  1  5
13  28  6
14  47  5
15  48  5
16  49  6
17  50  5
18  51  6
19  35  6
20  2  5
23  37  6
24  56  5
26  38  5
21  3  5
27  4  5
25  5  6
33  7  6

$$$$
101259325
  -OEChem-02162314422D

 90 96  0     1  0  0  0  0  0999 V2000
    8.8472    3.8894    0.0000 O   0  0  0  0  0  0  0  0  0  0  0  0
    5.2425   -2.2874    0.0000 O   0  0  0  0  0  0  0  0  0  0  0  0
    3.5134    1.6629    0.0000 O   0  0  0  0  0  0  0  0  0  0  0  0
    6.1049    3.2655    0.0000 O   0  0  0  0  0  0  0  0  0  0  0  0
    7.4955   -1.2434    0.0000 O   0  0  0  0  0  0  0  0  0  0  0  0
    2.0138   -3.1050    0.0000 O   0  0  0  0  0  0  0  0  0  0  0  0
    4.1786   -4.1276    0.0000 O   0  0  0  0  0  0  0  0  0  0  0  0
    8.7756   -0.3612    0.0000 O   0  0  0  0  0  0  0  0  0  0  0  0
    2.6892   -4.7819    0.0000 O   0  0  0  0  0  0  0  0  0  0  0  0
    6.9373   -1.9302    0.0000 O   0  0  0  0  0  0  0  0  0  0  0  0
    4.3795    3.1629    0.0000 O   0  0  0  0  0  0  0  0  0  0  0  0
    6.9418    4.7819    0.0000 O   0  0  0  0  0  0  0  0  0  0  0  0
    4.3795    0.1629    0.0000 C   0  0  1  0  0  0  0  0  0  0  0  0
    5.2455   -0.3371    0.0000 C   0  0  2  0  0  0  0  0  0  0  0  0
    3.6425   -0.5042    0.0000 C   0  0  2  0  0  0  0  0  0  0  0  0
    6.1115    0.1629    0.0000 C   0  0  1  0  0  0  0  0  0  0  0  0
    6.1115    1.1629    0.0000 C   0  0  1  0  0  0  0  0  0  0  0  0
    4.0476   -1.4120    0.0000 C   0  0  2  0  0  0  0  0  0  0  0  0
    5.0363   -1.3089    0.0000 C   0  0  2  0  0  0  0  0  0  0  0  0
    7.0055    1.6976    0.0000 C   0  0  2  0  0  0  0  0  0  0  0  0
    4.3795    1.1629    0.0000 C   0  0  2  0  0  0  0  0  0  0  0  0
    5.2455    1.6629    0.0000 C   0  0  0  0  0  0  0  0  0  0  0  0
    3.4527   -2.2595    0.0000 C   0  0  1  0  0  0  0  0  0  0  0  0
    7.9115    1.1837    0.0000 C   0  0  2  0  0  0  0  0  0  0  0  0
    7.0055   -0.3717    0.0000 C   0  0  2  0  0  0  0  0  0  0  0  0
    2.6144   -0.3810    0.0000 C   0  0  1  0  0  0  0  0  0  0  0  0
    6.9804    2.7823    0.0000 C   0  0  2  0  0  0  0  0  0  0  0  0
    3.5134    0.6629    0.0000 C   0  0  0  0  0  0  0  0  0  0  0  0
    7.9115    3.3392    0.0000 C   0  0  2  0  0  0  0  0  0  0  0  0
    8.8553    2.8040    0.0000 C   0  0  2  0  0  0  0  0  0  0  0  0
    8.8553    1.7190    0.0000 C   0  0  0  0  0  0  0  0  0  0  0  0
    7.9115    0.1421    0.0000 C   0  0  0  0  0  0  0  0  0  0  0  0
    3.6727   -3.2650    0.0000 C   0  0  1  0  0  0  0  0  0  0  0  0
    2.4220   -2.1601    0.0000 C   0  0  0  0  0  0  0  0  0  0  0  0
    6.1356    2.1909    0.0000 C   0  0  0  0  0  0  0  0  0  0  0  0
    2.0000   -1.2145    0.0000 C   0  0  0  0  0  0  0  0  0  0  0  0
    4.4480   -2.3555    0.0000 C   0  0  0  0  0  0  0  0  0  0  0  0
    2.2174    0.5369    0.0000 C   0  0  0  0  0  0  0  0  0  0  0  0
    2.7852   -3.7865    0.0000 C   0  0  0  0  0  0  0  0  0  0  0  0
    4.6494   -3.0504    0.0000 C   0  0  0  0  0  0  0  0  0  0  0  0
    6.1930   -2.5981    0.0000 C   0  0  0  0  0  0  0  0  0  0  0  0
    3.5134    2.6629    0.0000 C   0  0  0  0  0  0  0  0  0  0  0  0
    6.0856    4.2653    0.0000 C   0  0  0  0  0  0  0  0  0  0  0  0
    6.3992   -3.5766    0.0000 C   0  0  0  0  0  0  0  0  0  0  0  0
    2.6474    3.1629    0.0000 C   0  0  0  0  0  0  0  0  0  0  0  0
    5.2101    4.7485    0.0000 C   0  0  0  0  0  0  0  0  0  0  0  0
    5.9325   -0.8376    0.0000 H   0  0  0  0  0  0  0  0  0  0  0  0
    3.3846    0.3058    0.0000 H   0  0  0  0  0  0  0  0  0  0  0  0
    6.1050   -0.6871    0.0000 H   0  0  0  0  0  0  0  0  0  0  0  0
    6.8509    0.7436    0.0000 H   0  0  0  0  0  0  0  0  0  0  0  0
    4.4782   -2.1448    0.0000 H   0  0  0  0  0  0  0  0  0  0  0  0
    5.6563   -1.3102    0.0000 H   0  0  0  0  0  0  0  0  0  0  0  0
    4.3795    1.7829    0.0000 H   0  0  0  0  0  0  0  0  0  0  0  0
    5.6440    2.1379    0.0000 H   0  0  0  0  0  0  0  0  0  0  0  0
    4.8470    2.1379    0.0000 H   0  0  0  0  0  0  0  0  0  0  0  0
    8.6460    0.7559    0.0000 H   0  0  0  0  0  0  0  0  0  0  0  0
    6.5612   -0.8042    0.0000 H   0  0  0  0  0  0  0  0  0  0  0  0
    2.9851    0.1160    0.0000 H   0  0  0  0  0  0  0  0  0  0  0  0
    6.9696    3.4022    0.0000 H   0  0  0  0  0  0  0  0  0  0  0  0
    3.8234    1.1998    0.0000 H   0  0  0  0  0  0  0  0  0  0  0  0
    2.9765    0.9729    0.0000 H   0  0  0  0  0  0  0  0  0  0  0  0
    3.2034    0.1260    0.0000 H   0  0  0  0  0  0  0  0  0  0  0  0
    7.5953    3.8725    0.0000 H   0  0  0  0  0  0  0  0  0  0  0  0
    9.4753    2.8063    0.0000 H   0  0  0  0  0  0  0  0  0  0  0  0
    9.0644    1.1353    0.0000 H   0  0  0  0  0  0  0  0  0  0  0  0
    9.4662    1.8251    0.0000 H   0  0  0  0  0  0  0  0  0  0  0  0
    6.4415    2.7302    0.0000 H   0  0  0  0  0  0  0  0  0  0  0  0
    5.5963    2.4967    0.0000 H   0  0  0  0  0  0  0  0  0  0  0  0
    5.8298    1.6516    0.0000 H   0  0  0  0  0  0  0  0  0  0  0  0
    1.3836   -1.1478    0.0000 H   0  0  0  0  0  0  0  0  0  0  0  0
    4.3885   -2.9726    0.0000 H   0  0  0  0  0  0  0  0  0  0  0  0
    5.0652   -2.4150    0.0000 H   0  0  0  0  0  0  0  0  0  0  0  0
    4.5076   -1.7383    0.0000 H   0  0  0  0  0  0  0  0  0  0  0  0
    2.7865    0.7830    0.0000 H   0  0  0  0  0  0  0  0  0  0  0  0
    1.9713    1.1060    0.0000 H   0  0  0  0  0  0  0  0  0  0  0  0
    1.6484    0.2908    0.0000 H   0  0  0  0  0  0  0  0  0  0  0  0
    8.1154   -1.2507    0.0000 H   0  0  0  0  0  0  0  0  0  0  0  0
    4.7824   -3.6560    0.0000 H   0  0  0  0  0  0  0  0  0  0  0  0
    5.2549   -2.9174    0.0000 H   0  0  0  0  0  0  0  0  0  0  0  0
    4.5163   -2.4449    0.0000 H   0  0  0  0  0  0  0  0  0  0  0  0
    3.8723   -4.6666    0.0000 H   0  0  0  0  0  0  0  0  0  0  0  0
    5.7926   -3.7044    0.0000 H   0  0  0  0  0  0  0  0  0  0  0  0
    6.5271   -4.1832    0.0000 H   0  0  0  0  0  0  0  0  0  0  0  0
    7.0059   -3.4487    0.0000 H   0  0  0  0  0  0  0  0  0  0  0  0
    2.9574    3.6998    0.0000 H   0  0  0  0  0  0  0  0  0  0  0  0
    2.1105    3.4729    0.0000 H   0  0  0  0  0  0  0  0  0  0  0  0
    2.3374    2.6260    0.0000 H   0  0  0  0  0  0  0  0  0  0  0  0
    5.5097    5.2913    0.0000 H   0  0  0  0  0  0  0  0  0  0  0  0
    4.6673    5.0481    0.0000 H   0  0  0  0  0  0  0  0  0  0  0  0
    4.9105    4.2057    0.0000 H   0  0  0  0  0  0  0  0  0  0  0  0
 29  1  1  1  0  0  0
 30  1  1  1  0  0  0
 19  2  1  1  0  0  0
  2 41  1  0  0  0  0
 21  3  1  1  0  0  0
  3 42  1  0  0  0  0
 27  4  1  1  0  0  0
  4 43  1  0  0  0  0
 25  5  1  6  0  0  0
  5 77  1  0  0  0  0
  6 34  1  0  0  0  0
  6 39  1  0  0  0  0
 33  7  1  6  0  0  0
  7 81  1  0  0  0  0
  8 32  2  0  0  0  0
  9 39  2  0  0  0  0
 10 41  2  0  0  0  0
 11 42  2  0  0  0  0
 12 43  2  0  0  0  0
 13 14  1  0  0  0  0
 13 15  1  0  0  0  0
 13 21  1  0  0  0  0
 13 28  1  6  0  0  0
 14 16  1  0  0  0  0
 14 19  1  0  0  0  0
 14 47  1  1  0  0  0
 15 18  1  0  0  0  0
 15 26  1  0  0  0  0
 15 48  1  1  0  0  0
 16 17  1  0  0  0  0
 16 25  1  0  0  0  0
 16 49  1  6  0  0  0
 17 20  1  0  0  0  0
 17 22  1  0  0  0  0
 17 50  1  1  0  0  0
 18 19  1  0  0  0  0
 18 23  1  0  0  0  0
 18 51  1  1  0  0  0
 19 52  1  0  0  0  0
 20 24  1  0  0  0  0
 20 27  1  0  0  0  0
 20 35  1  6  0  0  0
 21 22  1  0  0  0  0
 21 53  1  0  0  0  0
 22 54  1  0  0  0  0
 22 55  1  0  0  0  0
 23 33  1  0  0  0  0
 23 34  1  0  0  0  0
 23 37  1  6  0  0  0
 24 31  1  0  0  0  0
 24 32  1  0  0  0  0
 24 56  1  1  0  0  0
 25 32  1  0  0  0  0
 25 57  1  0  0  0  0
 26 36  1  0  0  0  0
 26 38  1  1  0  0  0
 26 58  1  0  0  0  0
 27 29  1  0  0  0  0
 27 59  1  0  0  0  0
 28 60  1  0  0  0  0
 28 61  1  0  0  0  0
 28 62  1  0  0  0  0
 29 30  1  0  0  0  0
 29 63  1  0  0  0  0
 30 31  1  0  0  0  0
 30 64  1  0  0  0  0
 31 65  1  0  0  0  0
 31 66  1  0  0  0  0
 33 39  1  0  0  0  0
 33 40  1  0  0  0  0
 34 36  2  0  0  0  0
 35 67  1  0  0  0  0
 35 68  1  0  0  0  0
 35 69  1  0  0  0  0
 36 70  1  0  0  0  0
 37 71  1  0  0  0  0
 37 72  1  0  0  0  0
 37 73  1  0  0  0  0
 38 74  1  0  0  0  0
 38 75  1  0  0  0  0
 38 76  1  0  0  0  0
 40 78  1  0  0  0  0
 40 79  1  0  0  0  0
 40 80  1  0  0  0  0
 41 44  1  0  0  0  0
 42 45  1  0  0  0  0
 43 46  1  0  0  0  0
 44 82  1  0  0  0  0
 44 83  1  0  0  0  0
 44 84  1  0  0  0  0
 45 85  1  0  0  0  0
 45 86  1  0  0  0  0
 45 87  1  0  0  0  0
 46 88  1  0  0  0  0
 46 89  1  0  0  0  0
 46 90  1  0  0  0  0
M  END
> <PUBCHEM_COMPOUND_CID>
101259325

> <PUBCHEM_COMPOUND_CANONICALIZED>
1

> <PUBCHEM_CACTVS_COMPLEXITY>
1470

> <PUBCHEM_CACTVS_HBOND_ACCEPTOR>
12

> <PUBCHEM_CACTVS_HBOND_DONOR>
2

> <PUBCHEM_CACTVS_ROTATABLE_BOND>
6

> <PUBCHEM_CACTVS_SUBSKEYS>
AAADcfB8PAAAAAAAAAAAAAAAEgAAAaIAAAAwYMEABIAAAGDAAAAAGgAACAAAD1SggAICCAAABgCIAKDSCAIACAAgIAAACAFAAAgBEBIAAAACQAAFwAALAAPK7PzPgAAAAAAAAADAAAYQADCAAYAADAAAAA==

> <PUBCHEM_IUPAC_OPENEYE_NAME>
[(1S,2R,3R,5S,7S,9S,10R,11R,12S,14S,15R,16S,17S,22S,23S,24S,25R)-10,25-diacetoxy-3,22-dihydroxy-11,15,17,22,23-pentamethyl-4,21-dioxo-8,20-dioxaheptacyclo[13.10.0.02,12.05,11.07,9.016,24.019,23]pentacos-18-en-14-yl] acetate

> <PUBCHEM_IUPAC_CAS_NAME>
acetic acid [(1S,2R,3R,5S,7S,9S,10R,11R,12S,14S,15R,16S,17S,22S,23S,24S,25R)-10,25-diacetyloxy-3,22-dihydroxy-11,15,17,22,23-pentamethyl-4,21-dioxo-8,20-dioxaheptacyclo[13.10.0.02,12.05,11.07,9.016,24.019,23]pentacos-18-en-14-yl] ester

> <PUBCHEM_IUPAC_NAME_MARKUP>
[(1<I>S</I>,2<I>R</I>,3<I>R</I>,5<I>S</I>,7<I>S</I>,9<I>S</I>,10<I>R</I>,11<I>R</I>,12<I>S</I>,14<I>S</I>,15<I>R</I>,16<I>S</I>,17<I>S</I>,22<I>S</I>,23<I>S</I>,24<I>S</I>,25<I>R</I>)-10,25-diacetyloxy-3,22-dihydroxy-11,15,17,22,23-pentamethyl-4,21-dioxo-8,20-dioxaheptacyclo[13.10.0.0<SUP>2,12</SUP>.0<SUP>5,11</SUP>.0<SUP>7,9</SUP>.0<SUP>16,24</SUP>.0<SUP>19,23</SUP>]pentacos-18-en-14-yl] acetate

> <PUBCHEM_IUPAC_NAME>
[(1S,2R,3R,5S,7S,9S,10R,11R,12S,14S,15R,16S,17S,22S,23S,24S,25R)-10,25-diacetyloxy-3,22-dihydroxy-11,15,17,22,23-pentamethyl-4,21-dioxo-8,20-dioxaheptacyclo[13.10.0.02,12.05,11.07,9.016,24.019,23]pentacos-18-en-14-yl] acetate

> <PUBCHEM_IUPAC_SYSTEMATIC_NAME>
[(1S,2R,3R,5S,7S,9S,10R,11R,12S,14S,15R,16S,17S,22S,23S,24S,25R)-10,25-diacetyloxy-11,15,17,22,23-pentamethyl-3,22-bis(oxidanyl)-4,21-bis(oxidanylidene)-8,20-dioxaheptacyclo[13.10.0.02,12.05,11.07,9.016,24.019,23]pentacos-18-en-14-yl] ethanoate

> <PUBCHEM_IUPAC_TRADITIONAL_NAME>
acetic acid [(1S,2R,3R,5S,7S,9S,10R,11R,12S,14S,15R,16S,17S,22S,23S,24S,25R)-10,25-diacetoxy-3,22-dihydroxy-4,21-diketo-11,15,17,22,23-pentamethyl-8,20-dioxaheptacyclo[13.10.0.02,12.05,11.07,9.016,24.019,23]pentacos-18-en-14-yl] ester

> <PUBCHEM_IUPAC_INCHI>
InChI=1S/C34H44O12/c1-12-9-20-33(7,34(8,41)30(40)46-20)24-22(12)32(6)19(42-13(2)35)11-16-21(23(32)28(24)43-14(3)36)26(39)25(38)17-10-18-27(45-18)29(31(16,17)5)44-15(4)37/h9,12,16-19,21-24,26-29,39,41H,10-11H2,1-8H3/t12-,16+,17-,18+,19+,21-,22+,23-,24-,26-,27+,28-,29+,31-,32-,33+,34-/m1/s1

> <PUBCHEM_IUPAC_INCHIKEY>
QPGVBFHVYONDKH-ZVVMTAGSSA-N

> <PUBCHEM_XLOGP3_AA>
2.1

> <PUBCHEM_EXACT_MASS>
644.28327683

> <PUBCHEM_MOLECULAR_FORMULA>
C34H44O12

> <PUBCHEM_MOLECULAR_WEIGHT>
644.7

> <PUBCHEM_OPENEYE_CAN_SMILES>
CC1C=C2C(C3C1C4(C(CC5C(C4C3OC(=O)C)C(C(=O)C6C5(C(C7C(C6)O7)OC(=O)C)C)O)OC(=O)C)C)(C(C(=O)O2)(C)O)C

> <PUBCHEM_OPENEYE_ISO_SMILES>
C[C@@H]1C=C2[C@@]([C@@H]3[C@H]1[C@]4([C@H](C[C@H]5[C@H]([C@@H]4[C@H]3OC(=O)C)[C@H](C(=O)[C@@H]6[C@@]5([C@H]([C@@H]7[C@H](C6)O7)OC(=O)C)C)O)OC(=O)C)C)([C@](C(=O)O2)(C)O)C

> <PUBCHEM_CACTVS_TPSA>
175

> <PUBCHEM_MONOISOTOPIC_WEIGHT>
644.28327683

> <PUBCHEM_TOTAL_CHARGE>
0

> <PUBCHEM_HEAVY_ATOM_COUNT>
46

> <PUBCHEM_ATOM_DEF_STEREO_COUNT>
17

> <PUBCHEM_ATOM_UDEF_STEREO_COUNT>
0

> <PUBCHEM_BOND_DEF_STEREO_COUNT>
0

> <PUBCHEM_BOND_UDEF_STEREO_COUNT>
0

> <PUBCHEM_ISOTOPIC_ATOM_COUNT>
0

> <PUBCHEM_COMPONENT_COUNT>
1

> <PUBCHEM_CACTVS_TAUTO_COUNT>
-1

> <PUBCHEM_COORDINATE_TYPE>
1
5
255

> <PUBCHEM_BONDANNOTATIONS>
29  1  5
30  1  5
13  28  6
14  47  5
15  48  5
16  49  6
17  50  5
18  51  5
19  2  5
20  35  6
23  37  6
24  56  5
26  38  5
21  3  5
27  4  5
25  5  6
33  7  6

$$$$
